          10
 FINAL STATE
 Ar   1.9611813272865042        1.3280831221013263        1.9956568451420897     
 Ar   1.7519082776038279       0.17434963768466602        1.2723995876157961     
 Ar  0.82088624014351597        1.5838635124142650       0.23776849085117005     
 Ar  0.39660670522417030       0.87193650757119878        1.5703433481316966     
 Ar   1.8448762589363985       0.47557846823112143       0.87024780768794419     
 Ar   1.3305932647880396        1.6588140147674029       0.95548266971806506     
 Ar   1.9325375439957981        1.9277237765493020        1.9679404374830782     
 Ar  0.35600959363381113       0.34183896298827610       0.51156701041529551     
 Ar   1.0536061905761949       0.80483769863714505       0.35850788485440810     
 Ar  0.74442377819321992        1.6979600088212810        1.2208187952368807     
